sim-profile: SimpleScalar/PISA Tool Set version 3.0 of August, 2003.
Copyright (c) 1994-2003 by Todd M. Austin, Ph.D. and SimpleScalar, LLC.
All Rights Reserved. This version of SimpleScalar is licensed for academic
non-commercial use.  No portion of this work may be used by any commercial
entity, or for any commercial purpose, without the prior written permission
of SimpleScalar, LLC (info@simplescalar.com).

sim: command line: /home/dgy/chronos/simplesim-3.0/sim-profile -pcstat sim_num_insn lms 

sim: simulation started @ Sun Jan  4 16:06:59 2015, options follow:

sim-profile: This simulator implements a functional simulator with
profiling support.  Run with the `-h' flag to see profiling options
available.

# -config                     # load configuration from a file
# -dumpconfig                 # dump configuration to a file
# -h                    false # print help message    
# -v                    false # verbose operation     
# -d                    false # enable debug message  
# -i                    false # start in Dlite debugger
-seed                       1 # random number generator seed (0 for timer seed)
# -q                    false # initialize and terminate immediately
# -chkpt               <null> # restore EIO trace execution from <fname>
# -redir:sim           <null> # redirect simulator output to file (non-interactive only)
# -redir:prog          <null> # redirect simulated program output to file
-nice                       0 # simulator scheduling priority
-max:inst                   0 # maximum number of inst's to execute
-all                    false # enable all profile options
-iclass                 false # enable instruction class profiling
-iprof                  false # enable instruction profiling
-brprof                 false # enable branch instruction profiling
-amprof                 false # enable address mode profiling
-segprof                false # enable load/store address segment profiling
-tsymprof               false # enable text symbol profiling
-taddrprof              false # enable text address profiling
-dsymprof               false # enable data symbol profiling
-internal               false # include compiler-internal symbols during symbol profiling
# -pcstat        sim_num_insn # profile stat(s) against text addr's (mult uses ok)

sim: ** starting functional simulation **

sim: ** simulation statistics **
sim_num_insn                 563006 # total number of instructions executed
sim_num_refs                 157194 # total number of loads and stores executed
sim_elapsed_time                  1 # total simulation time in seconds
sim_inst_rate           563006.0000 # simulation speed (in insts/sec)

sim_num_insn_by_pc     # total number of instructions executed (by text address)
sim_num_insn_by_pc.count = 856
sim_num_insn_by_pc.total = 563005
sim_num_insn_by_pc.imin = 0x400140
sim_num_insn_by_pc.imax = 0x405860
sim_num_insn_by_pc.average = 657.7161
sim_num_insn_by_pc.std_dev = 3518.1831
sim_num_insn_by_pc.overflows = 0
# pdf == prob dist fn, cdf == cumulative dist fn
#          index      count    pdf 
sim_num_insn_by_pc.start_dist
0x400140 1 0.00
0x400148 1 0.00
0x400150 1 0.00
0x400158 1 0.00
0x400160 1 0.00
0x400168 1 0.00
0x400170 1 0.00
0x400178 1 0.00
0x400180 1 0.00
0x400188 1 0.00
0x400190 1 0.00
0x400198 1 0.00
0x4001a0 1 0.00
0x4001a8 1 0.00
0x4001b0 1 0.00
0x4001b8 1 0.00
0x4001c0 1 0.00
0x4001c8 1 0.00
0x4001d0 1 0.00
0x4001d8 1 0.00
0x4001e0 1 0.00
0x4001f0 1 0.00
0x4001f8 1 0.00
0x400200 1 0.00
0x400208 1 0.00
0x400210 1024 0.18
0x400218 1024 0.18
0x400220 1024 0.18
0x400228 1024 0.18
0x400230 1 0.00
0x400238 1 0.00
0x400240 1 0.00
0x400248 1 0.00
0x400250 1 0.00
0x400258 1 0.00
0x400260 1 0.00
0x400268 1 0.00
0x400270 1 0.00
0x400278 1 0.00
0x400280 1 0.00
0x400288 1 0.00
0x400290 1 0.00
0x400298 1 0.00
0x4002a0 1 0.00
0x4002a8 1 0.00
0x4002b0 1 0.00
0x4002b8 1 0.00
0x4002c0 1 0.00
0x4002c8 1 0.00
0x4002d0 1 0.00
0x4002d8 1024 0.18
0x4002e0 1024 0.18
0x4002e8 1024 0.18
0x4002f0 1024 0.18
0x4002f8 1024 0.18
0x400300 1024 0.18
0x400308 1024 0.18
0x400310 1024 0.18
0x400318 20480 3.64
0x400320 20480 3.64
0x400328 20480 3.64
0x400330 20480 3.64
0x400338 20480 3.64
0x400340 20480 3.64
0x400348 20480 3.64
0x400350 20480 3.64
0x400358 20480 3.64
0x400360 1024 0.18
0x400368 1024 0.18
0x400370 1024 0.18
0x400378 1024 0.18
0x400380 1024 0.18
0x400388 1024 0.18
0x400390 1024 0.18
0x400398 1024 0.18
0x4003a0 1024 0.18
0x4003a8 1024 0.18
0x4003b0 1024 0.18
0x4003b8 1024 0.18
0x4003c0 1024 0.18
0x4003c8 21504 3.82
0x4003d0 21504 3.82
0x4003d8 21504 3.82
0x4003e0 21504 3.82
0x4003e8 21504 3.82
0x4003f0 21504 3.82
0x4003f8 21504 3.82
0x400400 21504 3.82
0x400408 21504 3.82
0x400410 21504 3.82
0x400418 1024 0.18
0x400420 1024 0.18
0x400428 1024 0.18
0x400430 1024 0.18
0x400438 1024 0.18
0x400440 20480 3.64
0x400448 20480 3.64
0x400450 20480 3.64
0x400458 20480 3.64
0x400460 20480 3.64
0x400468 20480 3.64
0x400470 1024 0.18
0x400478 1024 0.18
0x400480 1024 0.18
0x400488 1024 0.18
0x400490 1 0.00
0x400498 1 0.00
0x4004a0 1 0.00
0x4004a8 1 0.00
0x4004b0 1 0.00
0x4004b8 1 0.00
0x4004c0 1 0.00
0x4004c8 1 0.00
0x4004d0 1 0.00
0x4004d8 1 0.00
0x4004e0 1 0.00
0x4004e8 1 0.00
0x4004f0 1 0.00
0x4004f8 1 0.00
0x400500 1 0.00
0x400508 1 0.00
0x400510 1 0.00
0x400518 1 0.00
0x400520 1 0.00
0x400528 1 0.00
0x400530 1 0.00
0x400538 1 0.00
0x400540 1 0.00
0x400548 1 0.00
0x400550 1 0.00
0x400600 1 0.00
0x400608 1 0.00
0x400610 1 0.00
0x400618 1 0.00
0x400620 1 0.00
0x400670 1 0.00
0x400678 1 0.00
0x400680 1 0.00
0x400688 1 0.00
0x400690 1 0.00
0x400698 1 0.00
0x4006a0 1 0.00
0x4006a8 1 0.00
0x4006b0 1 0.00
0x4006b8 1 0.00
0x4006c0 1 0.00
0x4006c8 1 0.00
0x4006d8 1 0.00
0x4006e0 1 0.00
0x4006e8 1 0.00
0x4006f0 1 0.00
0x4006f8 1 0.00
0x400910 1 0.00
0x400918 1 0.00
0x400920 1 0.00
0x400928 1 0.00
0x400930 1 0.00
0x400938 1 0.00
0x400940 1 0.00
0x400960 1 0.00
0x400980 1 0.00
0x400988 1 0.00
0x400990 1 0.00
0x400998 1 0.00
0x4009a0 1 0.00
0x4009a8 1 0.00
0x4009c8 1 0.00
0x4009d0 1 0.00
0x4009d8 1 0.00
0x4009e0 1 0.00
0x400a00 1 0.00
0x400a08 1 0.00
0x400a10 1 0.00
0x400a18 1 0.00
0x400a20 1 0.00
0x400a28 1 0.00
0x400a30 1 0.00
0x400a38 1 0.00
0x400a40 1 0.00
0x400a48 1 0.00
0x400a50 1 0.00
0x400a58 1 0.00
0x400a60 1 0.00
0x400a68 1 0.00
0x400a70 1 0.00
0x400a78 1 0.00
0x400a80 1 0.00
0x400a88 1 0.00
0x400a90 1 0.00
0x400a98 1 0.00
0x400aa0 1 0.00
0x400aa8 1 0.00
0x400ab0 1 0.00
0x400ab8 1 0.00
0x400ac8 1 0.00
0x400ad0 1 0.00
0x400ad8 1 0.00
0x400ae0 1 0.00
0x400ae8 1 0.00
0x400af0 1 0.00
0x400af8 1 0.00
0x400b00 1 0.00
0x400b08 1 0.00
0x400b10 1 0.00
0x400b18 1 0.00
0x400b20 1 0.00
0x400b28 1 0.00
0x400b30 1 0.00
0x400b38 1 0.00
0x400b40 1 0.00
0x400b48 1 0.00
0x400b50 1 0.00
0x400b58 1 0.00
0x400b60 1 0.00
0x400b68 1 0.00
0x400b70 1 0.00
0x400b78 1 0.00
0x400b80 1 0.00
0x400b88 1 0.00
0x400b98 1 0.00
0x400ba0 1 0.00
0x400ba8 1 0.00
0x400bb0 1 0.00
0x400bb8 1 0.00
0x400bc0 1 0.00
0x400bc8 1 0.00
0x400bd0 1 0.00
0x400bd8 1 0.00
0x400be0 1 0.00
0x400be8 1 0.00
0x400bf0 1 0.00
0x400bf8 1 0.00
0x400c00 1 0.00
0x400c08 1 0.00
0x400c10 1 0.00
0x400c18 1 0.00
0x400c48 1 0.00
0x400c50 1 0.00
0x400c60 1 0.00
0x400c68 1 0.00
0x400c80 1 0.00
0x400c88 1 0.00
0x400c90 1 0.00
0x400c98 1 0.00
0x400ca8 1 0.00
0x400cb0 1 0.00
0x400cb8 1 0.00
0x400cc0 1 0.00
0x400cc8 1 0.00
0x400f50 1 0.00
0x400f58 1 0.00
0x400f60 1 0.00
0x400f68 1 0.00
0x400f78 1 0.00
0x400f80 1 0.00
0x400f88 1 0.00
0x400f90 1 0.00
0x400f98 1 0.00
0x400fa0 1 0.00
0x400fa8 1 0.00
0x400fb0 1 0.00
0x400fb8 1 0.00
0x400fc0 1 0.00
0x400fc8 1 0.00
0x400fd0 1 0.00
0x400fd8 1 0.00
0x400fe0 1 0.00
0x400fe8 1 0.00
0x400ff0 1 0.00
0x400ff8 1 0.00
0x401000 1 0.00
0x401008 1 0.00
0x401010 1 0.00
0x401018 1 0.00
0x401020 1 0.00
0x401038 1 0.00
0x401040 1 0.00
0x401048 1 0.00
0x401050 1 0.00
0x401058 1 0.00
0x401060 1 0.00
0x401070 1 0.00
0x401078 1 0.00
0x401410 1 0.00
0x401418 1 0.00
0x401420 1 0.00
0x401428 1 0.00
0x401430 1 0.00
0x401438 1 0.00
0x401440 1 0.00
0x401448 1 0.00
0x401450 1 0.00
0x401458 1 0.00
0x401460 1 0.00
0x401468 1 0.00
0x401470 1 0.00
0x401478 1 0.00
0x401480 1 0.00
0x401488 1 0.00
0x401490 1 0.00
0x401498 1 0.00
0x4014a0 1 0.00
0x4014a8 1 0.00
0x4014b0 1 0.00
0x4014b8 1 0.00
0x4014c0 1 0.00
0x4014c8 1 0.00
0x4014d0 1 0.00
0x4014d8 1 0.00
0x4015c0 1 0.00
0x4015c8 1 0.00
0x4015d0 1 0.00
0x4015d8 1 0.00
0x4015e0 1 0.00
0x4015e8 1 0.00
0x4015f0 1 0.00
0x401600 1 0.00
0x401608 1 0.00
0x401610 1 0.00
0x401618 1 0.00
0x401620 1 0.00
0x401628 1 0.00
0x401630 1 0.00
0x401638 1 0.00
0x401640 1 0.00
0x401648 1 0.00
0x401650 1 0.00
0x401658 1 0.00
0x401660 1 0.00
0x401668 1 0.00
0x401670 1 0.00
0x401678 1 0.00
0x401680 1 0.00
0x401918 1 0.00
0x401920 1 0.00
0x401928 1 0.00
0x401930 1 0.00
0x401938 1 0.00
0x401940 1 0.00
0x401948 1 0.00
0x401950 1 0.00
0x401960 4 0.00
0x401968 4 0.00
0x401970 4 0.00
0x401978 4 0.00
0x401980 4 0.00
0x401988 4 0.00
0x401990 4 0.00
0x401998 1 0.00
0x4019a0 1 0.00
0x4019a8 1 0.00
0x4019b0 1 0.00
0x4019b8 1 0.00
0x4019c0 1 0.00
0x4019c8 3 0.00
0x4019d0 3 0.00
0x4019e8 3 0.00
0x4019f0 3 0.00
0x4019f8 3 0.00
0x401a00 3 0.00
0x401a08 3 0.00
0x401a10 3 0.00
0x401a18 1 0.00
0x401a20 1 0.00
0x401a28 3 0.00
0x401a30 3 0.00
0x401a38 3 0.00
0x401a40 3 0.00
0x401a58 3 0.00
0x401a60 3 0.00
0x401a68 3 0.00
0x401a70 3 0.00
0x401a98 3 0.00
0x401aa0 3 0.00
0x401aa8 3 0.00
0x401ab0 2 0.00
0x401ab8 2 0.00
0x401ac0 2 0.00
0x401ac8 2 0.00
0x401ad0 2 0.00
0x401ae8 3 0.00
0x401af0 3 0.00
0x401af8 1 0.00
0x401b00 1 0.00
0x401b08 1 0.00
0x401b10 1 0.00
0x401b18 3 0.00
0x401b20 3 0.00
0x401b28 2 0.00
0x401b30 2 0.00
0x401b38 2 0.00
0x401b40 2 0.00
0x401b48 1 0.00
0x401b50 1 0.00
0x401b58 1 0.00
0x401b60 1 0.00
0x401b68 1 0.00
0x401b88 1 0.00
0x401b90 3 0.00
0x401b98 3 0.00
0x401ba0 3 0.00
0x401ba8 4 0.00
0x401bb0 4 0.00
0x401bb8 4 0.00
0x401bc0 4 0.00
0x401bc8 4 0.00
0x401bd0 4 0.00
0x401c00 1 0.00
0x401c08 1 0.00
0x401c10 1 0.00
0x401c18 1 0.00
0x401c50 1 0.00
0x401c58 1 0.00
0x401c60 1 0.00
0x401c68 1 0.00
0x401c70 1 0.00
0x401c78 1 0.00
0x401c80 1 0.00
0x401c88 1 0.00
0x401c90 1 0.00
0x401c98 1 0.00
0x401ca0 1 0.00
0x401ca8 1 0.00
0x401cb0 1 0.00
0x401cb8 1 0.00
0x401cf0 1 0.00
0x401cf8 1 0.00
0x401d00 1 0.00
0x401d08 1 0.00
0x401d10 1 0.00
0x401d18 1 0.00
0x401d20 1 0.00
0x401d28 1 0.00
0x401d30 1 0.00
0x401d38 1 0.00
0x401d40 1 0.00
0x401d48 1 0.00
0x401d50 1 0.00
0x401d58 1 0.00
0x401d60 1 0.00
0x401d68 1 0.00
0x401d70 1 0.00
0x401d88 1 0.00
0x401d90 1 0.00
0x401d98 1 0.00
0x401da0 3 0.00
0x401da8 3 0.00
0x401db0 3 0.00
0x401db8 3 0.00
0x401dc0 3 0.00
0x401dc8 3 0.00
0x401dd0 3 0.00
0x401dd8 3 0.00
0x401de0 3 0.00
0x401de8 3 0.00
0x401df0 4 0.00
0x401df8 4 0.00
0x401e00 4 0.00
0x401e08 4 0.00
0x401e10 4 0.00
0x401e18 4 0.00
0x401e20 4 0.00
0x401e28 4 0.00
0x401e30 4 0.00
0x401e38 4 0.00
0x401e68 4 0.00
0x401e70 4 0.00
0x401e78 4 0.00
0x401e80 390 0.07
0x401e88 390 0.07
0x401e90 390 0.07
0x401e98 390 0.07
0x401ea0 390 0.07
0x401ea8 390 0.07
0x401eb0 390 0.07
0x401eb8 390 0.07
0x401ec0 390 0.07
0x401ec8 390 0.07
0x401ed0 390 0.07
0x401ed8 390 0.07
0x401ee0 4 0.00
0x401ee8 4 0.00
0x401ef0 4 0.00
0x401ef8 12 0.00
0x401f00 12 0.00
0x401f08 12 0.00
0x401f10 12 0.00
0x401f18 4 0.00
0x401f20 4 0.00
0x401f48 4 0.00
0x401f50 4 0.00
0x402120 1 0.00
0x402128 1 0.00
0x402130 1 0.00
0x402138 1 0.00
0x402140 1 0.00
0x402148 1 0.00
0x402150 1 0.00
0x402158 1 0.00
0x402160 1 0.00
0x402168 1 0.00
0x402178 1 0.00
0x402180 1 0.00
0x402188 1 0.00
0x402190 1 0.00
0x402198 1 0.00
0x4021a0 1 0.00
0x4021a8 1 0.00
0x4021b0 1 0.00
0x4021b8 1 0.00
0x4021c0 1 0.00
0x4021c8 1 0.00
0x4021d0 1 0.00
0x4021d8 1 0.00
0x4021e0 1 0.00
0x4021e8 1 0.00
0x4021f0 1 0.00
0x4021f8 1 0.00
0x402200 1 0.00
0x402208 1 0.00
0x402210 1 0.00
0x402218 1 0.00
0x402220 1 0.00
0x402228 1 0.00
0x402230 1 0.00
0x402238 1 0.00
0x402288 1 0.00
0x402290 1 0.00
0x402298 1 0.00
0x4022a0 1 0.00
0x4022a8 1 0.00
0x4022b0 1 0.00
0x4022b8 1 0.00
0x4022d0 1 0.00
0x4022d8 1 0.00
0x4022e0 1 0.00
0x4022e8 1 0.00
0x4022f0 1 0.00
0x4022f8 1 0.00
0x402300 1 0.00
0x402308 1 0.00
0x402310 1 0.00
0x402318 1 0.00
0x402320 1 0.00
0x402328 1 0.00
0x402330 1 0.00
0x402380 1 0.00
0x402388 1 0.00
0x402390 1 0.00
0x402398 1 0.00
0x4023a0 1 0.00
0x4023a8 1 0.00
0x4023b0 1 0.00
0x4023b8 1 0.00
0x4023c0 1 0.00
0x4023c8 1 0.00
0x4023d0 1 0.00
0x4023d8 1 0.00
0x4023e0 1 0.00
0x4023e8 1 0.00
0x4023f0 1 0.00
0x4023f8 1 0.00
0x402400 1 0.00
0x402408 1 0.00
0x402410 1 0.00
0x402418 1 0.00
0x402420 1 0.00
0x402428 1 0.00
0x402430 1 0.00
0x402438 1 0.00
0x402440 1 0.00
0x402448 1 0.00
0x402450 1 0.00
0x402458 1 0.00
0x402510 1 0.00
0x402518 1 0.00
0x402520 1 0.00
0x402528 1 0.00
0x402530 1 0.00
0x402680 1 0.00
0x402688 1 0.00
0x402998 1 0.00
0x4029a0 1 0.00
0x4029a8 1 0.00
0x4029b0 1 0.00
0x4029b8 1 0.00
0x4029c0 1 0.00
0x4029c8 1 0.00
0x4029d0 1 0.00
0x4029d8 1 0.00
0x4029e0 1 0.00
0x4029e8 1 0.00
0x4029f0 1 0.00
0x402a18 1 0.00
0x402a20 1 0.00
0x402a50 1 0.00
0x402a58 1 0.00
0x402a60 1 0.00
0x402a68 1 0.00
0x402e98 2 0.00
0x402ea0 2 0.00
0x402ea8 2 0.00
0x402eb0 2 0.00
0x402eb8 2 0.00
0x402ec0 2 0.00
0x402ec8 2 0.00
0x402ed0 2 0.00
0x402ed8 2 0.00
0x402ee0 2 0.00
0x402ee8 2 0.00
0x402ef0 2 0.00
0x402ef8 2 0.00
0x402f00 2 0.00
0x402f08 2 0.00
0x402f10 2 0.00
0x402f18 2 0.00
0x402f20 2 0.00
0x402f28 2 0.00
0x402f30 2 0.00
0x402f38 2 0.00
0x402f40 2 0.00
0x402f48 2 0.00
0x402f50 2 0.00
0x402f58 2 0.00
0x402f60 2 0.00
0x402f68 2 0.00
0x402f70 2 0.00
0x403128 2 0.00
0x403130 2 0.00
0x403138 1 0.00
0x403140 1 0.00
0x403148 1 0.00
0x403150 1 0.00
0x403158 1 0.00
0x403160 1 0.00
0x403168 1 0.00
0x4031d0 2 0.00
0x4031d8 2 0.00
0x4031e0 2 0.00
0x4031e8 2 0.00
0x403220 2 0.00
0x403228 2 0.00
0x403230 2 0.00
0x403238 2 0.00
0x403240 2 0.00
0x403248 2 0.00
0x403250 2 0.00
0x403258 2 0.00
0x403260 2 0.00
0x403268 2 0.00
0x403270 2 0.00
0x403570 2 0.00
0x403578 2 0.00
0x403580 2 0.00
0x403588 2 0.00
0x403590 2 0.00
0x403598 2 0.00
0x4035a0 2 0.00
0x4035a8 2 0.00
0x4035b0 2 0.00
0x4035c8 2 0.00
0x4035d0 2 0.00
0x4035d8 2 0.00
0x4035e0 2 0.00
0x4035e8 2 0.00
0x4035f0 2 0.00
0x4035f8 2 0.00
0x403600 2 0.00
0x403608 2 0.00
0x403610 2 0.00
0x403618 2 0.00
0x403ab0 2 0.00
0x403ab8 2 0.00
0x403ac0 2 0.00
0x403ac8 2 0.00
0x403ad0 2 0.00
0x403ad8 2 0.00
0x403ae0 2 0.00
0x403ae8 2 0.00
0x403af0 2 0.00
0x403af8 2 0.00
0x403b00 2 0.00
0x403b08 2 0.00
0x403b10 2 0.00
0x403b18 2 0.00
0x403b20 2 0.00
0x403b38 2 0.00
0x403b40 2 0.00
0x403b48 2 0.00
0x403b50 2 0.00
0x403b58 2 0.00
0x403b60 2 0.00
0x403b68 2 0.00
0x403b90 2 0.00
0x403b98 2 0.00
0x403ba0 2 0.00
0x403ba8 2 0.00
0x403bb0 2 0.00
0x403be8 2 0.00
0x403bf0 2 0.00
0x403bf8 2 0.00
0x403c00 2 0.00
0x403c08 2 0.00
0x403c10 2 0.00
0x403c18 2 0.00
0x403c20 2 0.00
0x403c28 2 0.00
0x403c30 2 0.00
0x403c38 2 0.00
0x403c40 2 0.00
0x403c48 2 0.00
0x403c50 2 0.00
0x403c58 2 0.00
0x403c60 2 0.00
0x403c68 2 0.00
0x403c70 2 0.00
0x403c78 2 0.00
0x403c80 2 0.00
0x403c88 2 0.00
0x403c90 2 0.00
0x403c98 2 0.00
0x403ca0 2 0.00
0x403ca8 2 0.00
0x403cb0 2 0.00
0x403cb8 2 0.00
0x403cc0 2 0.00
0x403cc8 2 0.00
0x403cd0 2 0.00
0x403cd8 1 0.00
0x403ce0 1 0.00
0x403cf8 1 0.00
0x403d00 1 0.00
0x403d08 1 0.00
0x403d10 1 0.00
0x403d18 1 0.00
0x403d20 1 0.00
0x403d28 1 0.00
0x403d60 1 0.00
0x403d68 1 0.00
0x403d70 1 0.00
0x403d98 2 0.00
0x403da0 2 0.00
0x403da8 2 0.00
0x403db0 2 0.00
0x403db8 2 0.00
0x403dc0 2 0.00
0x403dc8 2 0.00
0x403dd0 2 0.00
0x403dd8 2 0.00
0x403e08 2 0.00
0x403ed0 2 0.00
0x403ed8 2 0.00
0x403ee0 2 0.00
0x403f08 2 0.00
0x403f10 2 0.00
0x403f20 2 0.00
0x403f28 2 0.00
0x403f30 2 0.00
0x403f38 2 0.00
0x403f40 2 0.00
0x403f48 2 0.00
0x403f78 2 0.00
0x403f80 2 0.00
0x403f88 2 0.00
0x403f90 2 0.00
0x403fa8 2 0.00
0x403fb0 2 0.00
0x403fb8 2 0.00
0x403fc0 2 0.00
0x403fc8 2 0.00
0x403fd0 2 0.00
0x403fd8 2 0.00
0x403fe0 2 0.00
0x404578 3 0.00
0x404580 3 0.00
0x404588 3 0.00
0x404590 3 0.00
0x404598 3 0.00
0x4045a0 3 0.00
0x4045a8 3 0.00
0x4045b0 3 0.00
0x4045b8 3 0.00
0x4045c0 3 0.00
0x4045c8 3 0.00
0x4045d0 3 0.00
0x4045d8 3 0.00
0x4045e0 3 0.00
0x4045e8 3 0.00
0x404790 2 0.00
0x404798 2 0.00
0x4047a0 2 0.00
0x4047a8 2 0.00
0x4047b0 2 0.00
0x4047b8 2 0.00
0x404c30 3 0.00
0x404c38 3 0.00
0x404c40 3 0.00
0x404c48 3 0.00
0x404c60 3 0.00
0x404c68 3 0.00
0x404c70 3 0.00
0x404c78 3 0.00
0x404c80 3 0.00
0x404c88 3 0.00
0x404c90 3 0.00
0x404c98 3 0.00
0x404ca0 3 0.00
0x404ca8 3 0.00
0x404cb0 3 0.00
0x405510 2 0.00
0x405518 2 0.00
0x405520 2 0.00
0x405528 2 0.00
0x405530 2 0.00
0x405538 2 0.00
0x405540 2 0.00
0x405548 2 0.00
0x405550 2 0.00
0x405558 2 0.00
0x405560 2 0.00
0x405568 1 0.00
0x405570 1 0.00
0x405578 1 0.00
0x405580 1 0.00
0x405588 1 0.00
0x405590 1 0.00
0x405598 1 0.00
0x4055a0 1 0.00
0x4055c8 1 0.00
0x4055d0 1 0.00
0x405610 1 0.00
0x405618 1 0.00
0x405620 2 0.00
0x405628 2 0.00
0x405630 2 0.00
0x405638 2 0.00
0x405640 2 0.00
0x405720 2 0.00
0x405728 2 0.00
0x405730 2 0.00
0x405738 2 0.00
0x405740 2 0.00
0x4057d0 3 0.00
0x4057d8 3 0.00
0x4057e0 3 0.00
0x4057f0 3 0.00
0x4057f8 3 0.00
0x405800 3 0.00
0x405808 3 0.00
0x405810 3 0.00
0x405818 3 0.00
0x405840 1 0.00
0x405848 1 0.00
0x405850 1 0.00
0x405858 1 0.00
0x405860 1 0.00
sim_num_insn_by_pc.end_dist

ld_text_base             0x00400000 # program text (code) segment base
ld_text_size                  22944 # program text (code) size in bytes
ld_data_base             0x10000000 # program initialized data segment base
ld_data_size                   5472 # program init'ed `.data' and uninit'ed `.bss' size in bytes
ld_stack_base            0x7fffc000 # program stack segment base (highest address in stack)
ld_stack_size                 16384 # program initial stack size
ld_prog_entry            0x00400140 # program entry point (initial PC)
ld_environ_base          0x7fff8000 # program environment base address address
ld_target_big_endian              0 # target executable endian-ness, non-zero if big endian
mem.page_count                   13 # total number of pages allocated
mem.page_mem                    52k # total size of memory pages allocated
mem.ptab_misses                  13 # total first level page table misses
mem.ptab_accesses           2712396 # total page table accesses
mem.ptab_miss_rate           0.0000 # first level page table miss rate

+--------------------------------------------------------------+effective code range:         [0, fffffff8]
| effective code range:         [0, fffffff8]                  |
| effective bpred count:        0                              |
| effective sim cycles:         0                              |
| effective bpred misses:       0                              |
| effective icache misses:      0                              |
+--------------------------------------------------------------+effective code range:         [0, fffffff8]

