sim-profile: SimpleScalar/PISA Tool Set version 3.0 of August, 2003.
Copyright (c) 1994-2003 by Todd M. Austin, Ph.D. and SimpleScalar, LLC.
All Rights Reserved. This version of SimpleScalar is licensed for academic
non-commercial use.  No portion of this work may be used by any commercial
entity, or for any commercial purpose, without the prior written permission
of SimpleScalar, LLC (info@simplescalar.com).

sim: command line: /home/dgy/chronos/simplesim-3.0/sim-profile -pcstat sim_num_insn adpcm 

sim: simulation started @ Sun Jan  4 16:11:49 2015, options follow:

sim-profile: This simulator implements a functional simulator with
profiling support.  Run with the `-h' flag to see profiling options
available.

# -config                     # load configuration from a file
# -dumpconfig                 # dump configuration to a file
# -h                    false # print help message    
# -v                    false # verbose operation     
# -d                    false # enable debug message  
# -i                    false # start in Dlite debugger
-seed                       1 # random number generator seed (0 for timer seed)
# -q                    false # initialize and terminate immediately
# -chkpt               <null> # restore EIO trace execution from <fname>
# -redir:sim           <null> # redirect simulator output to file (non-interactive only)
# -redir:prog          <null> # redirect simulated program output to file
-nice                       0 # simulator scheduling priority
-max:inst                   0 # maximum number of inst's to execute
-all                    false # enable all profile options
-iclass                 false # enable instruction class profiling
-iprof                  false # enable instruction profiling
-brprof                 false # enable branch instruction profiling
-amprof                 false # enable address mode profiling
-segprof                false # enable load/store address segment profiling
-tsymprof               false # enable text symbol profiling
-taddrprof              false # enable text address profiling
-dsymprof               false # enable data symbol profiling
-internal               false # include compiler-internal symbols during symbol profiling
# -pcstat        sim_num_insn # profile stat(s) against text addr's (mult uses ok)

sim: ** starting functional simulation **

sim: ** simulation statistics **
sim_num_insn                 165684 # total number of instructions executed
sim_num_refs                  11791 # total number of loads and stores executed
sim_elapsed_time                  1 # total simulation time in seconds
sim_inst_rate           165684.0000 # simulation speed (in insts/sec)

sim_num_insn_by_pc     # total number of instructions executed (by text address)
sim_num_insn_by_pc.count = 891
sim_num_insn_by_pc.total = 165683
sim_num_insn_by_pc.imin = 0x400140
sim_num_insn_by_pc.imax = 0x405a10
sim_num_insn_by_pc.average = 185.9517
sim_num_insn_by_pc.std_dev = 564.2738
sim_num_insn_by_pc.overflows = 0
# pdf == prob dist fn, cdf == cumulative dist fn
#          index      count    pdf 
sim_num_insn_by_pc.start_dist
0x400140 1 0.00
0x400148 1 0.00
0x400150 1 0.00
0x400158 1 0.00
0x400160 1 0.00
0x400168 1 0.00
0x400170 1 0.00
0x400178 1 0.00
0x400180 1 0.00
0x400188 1 0.00
0x400190 1 0.00
0x400198 1 0.00
0x4001a0 1 0.00
0x4001a8 1 0.00
0x4001b0 1 0.00
0x4001b8 1 0.00
0x4001c0 1 0.00
0x4001c8 1 0.00
0x4001d0 1 0.00
0x4001d8 1 0.00
0x4001e0 1 0.00
0x4001f0 1 0.00
0x4001f8 1 0.00
0x400200 1 0.00
0x400208 1 0.00
0x400210 1 0.00
0x400218 1 0.00
0x400220 1 0.00
0x400228 1 0.00
0x400230 1 0.00
0x400238 1 0.00
0x400240 1 0.00
0x400248 1 0.00
0x400250 1 0.00
0x400258 2048 1.24
0x400260 2048 1.24
0x400268 2048 1.24
0x400270 2048 1.24
0x400278 2048 1.24
0x400288 2048 1.24
0x400298 2048 1.24
0x4002a0 2048 1.24
0x4002a8 2048 1.24
0x4002b0 2048 1.24
0x4002b8 2046 1.23
0x4002c0 2046 1.23
0x4002c8 2046 1.23
0x4002d0 2048 1.24
0x4002d8 2048 1.24
0x4002e0 2048 1.24
0x4002e8 2047 1.24
0x4002f0 2047 1.24
0x4002f8 2047 1.24
0x400300 2048 1.24
0x400308 2048 1.24
0x400310 2048 1.24
0x400318 2047 1.24
0x400320 2047 1.24
0x400328 2048 1.24
0x400340 2048 1.24
0x400348 2048 1.24
0x400350 2048 1.24
0x400368 2048 1.24
0x400370 2048 1.24
0x400380 2048 1.24
0x400388 2048 1.24
0x400398 2048 1.24
0x4003a0 2048 1.24
0x4003b0 2048 1.24
0x4003b8 1024 0.62
0x4003c0 1024 0.62
0x4003c8 1024 0.62
0x4003d0 1024 0.62
0x4003d8 1024 0.62
0x4003e0 1024 0.62
0x4003e8 1024 0.62
0x4003f0 2048 1.24
0x4003f8 2048 1.24
0x400400 2048 1.24
0x400408 1 0.00
0x400410 1 0.00
0x400418 1 0.00
0x400420 1 0.00
0x400430 1 0.00
0x400438 1 0.00
0x400440 1 0.00
0x400448 1 0.00
0x400450 1 0.00
0x400458 1 0.00
0x400460 1 0.00
0x400468 1 0.00
0x400470 1 0.00
0x400478 1 0.00
0x400480 1 0.00
0x400488 1 0.00
0x400490 1 0.00
0x400498 1 0.00
0x4004a0 1 0.00
0x4004a8 1 0.00
0x4004b0 1 0.00
0x4004b8 2048 1.24
0x4004c0 1024 0.62
0x4004c8 1024 0.62
0x4004d0 1024 0.62
0x4004d8 1024 0.62
0x4004e0 1024 0.62
0x4004e8 1024 0.62
0x4004f0 1024 0.62
0x4004f8 2048 1.24
0x400500 2048 1.24
0x400508 2048 1.24
0x400510 2048 1.24
0x400518 2048 1.24
0x400520 2048 1.24
0x400528 2 0.00
0x400530 2048 1.24
0x400538 2048 1.24
0x400540 2035 1.23
0x400548 2048 1.24
0x400550 2048 1.24
0x400558 2048 1.24
0x400560 2048 1.24
0x400568 2048 1.24
0x400570 2046 1.23
0x400578 2048 1.24
0x400580 2048 1.24
0x400588 2047 1.24
0x400590 2048 1.24
0x400598 2048 1.24
0x4005a0 2047 1.24
0x4005a8 2048 1.24
0x4005c0 2048 1.24
0x4005c8 2048 1.24
0x4005d0 2048 1.24
0x4005e8 2048 1.24
0x4005f0 2048 1.24
0x400600 2048 1.24
0x400608 2048 1.24
0x400610 2048 1.24
0x400618 2048 1.24
0x400620 2048 1.24
0x400628 1 0.00
0x400630 1 0.00
0x400638 1 0.00
0x400640 1 0.00
0x400650 1 0.00
0x400658 1 0.00
0x400660 1 0.00
0x400668 1 0.00
0x400670 1 0.00
0x400678 1 0.00
0x400680 1 0.00
0x400688 1 0.00
0x400690 1 0.00
0x400698 1 0.00
0x4006a0 1 0.00
0x4006a8 1 0.00
0x4006b0 1 0.00
0x4006b8 1 0.00
0x4006c0 1 0.00
0x4006c8 1 0.00
0x4006d0 1 0.00
0x4006d8 1 0.00
0x4006e0 1 0.00
0x4006e8 1 0.00
0x4006f0 1 0.00
0x4006f8 1 0.00
0x400700 1 0.00
0x4007b0 1 0.00
0x4007b8 1 0.00
0x4007c0 1 0.00
0x4007c8 1 0.00
0x4007d0 1 0.00
0x400820 1 0.00
0x400828 1 0.00
0x400830 1 0.00
0x400838 1 0.00
0x400840 1 0.00
0x400848 1 0.00
0x400850 1 0.00
0x400858 1 0.00
0x400860 1 0.00
0x400868 1 0.00
0x400870 1 0.00
0x400878 1 0.00
0x400888 1 0.00
0x400890 1 0.00
0x400898 1 0.00
0x4008a0 1 0.00
0x4008a8 1 0.00
0x400ac0 1 0.00
0x400ac8 1 0.00
0x400ad0 1 0.00
0x400ad8 1 0.00
0x400ae0 1 0.00
0x400ae8 1 0.00
0x400af0 1 0.00
0x400b10 1 0.00
0x400b30 1 0.00
0x400b38 1 0.00
0x400b40 1 0.00
0x400b48 1 0.00
0x400b50 1 0.00
0x400b58 1 0.00
0x400b78 1 0.00
0x400b80 1 0.00
0x400b88 1 0.00
0x400b90 1 0.00
0x400bb0 1 0.00
0x400bb8 1 0.00
0x400bc0 1 0.00
0x400bc8 1 0.00
0x400bd0 1 0.00
0x400bd8 1 0.00
0x400be0 1 0.00
0x400be8 1 0.00
0x400bf0 1 0.00
0x400bf8 1 0.00
0x400c00 1 0.00
0x400c08 1 0.00
0x400c10 1 0.00
0x400c18 1 0.00
0x400c20 1 0.00
0x400c28 1 0.00
0x400c30 1 0.00
0x400c38 1 0.00
0x400c40 1 0.00
0x400c48 1 0.00
0x400c50 1 0.00
0x400c58 1 0.00
0x400c60 1 0.00
0x400c68 1 0.00
0x400c78 1 0.00
0x400c80 1 0.00
0x400c88 1 0.00
0x400c90 1 0.00
0x400c98 1 0.00
0x400ca0 1 0.00
0x400ca8 1 0.00
0x400cb0 1 0.00
0x400cb8 1 0.00
0x400cc0 1 0.00
0x400cc8 1 0.00
0x400cd0 1 0.00
0x400cd8 1 0.00
0x400ce0 1 0.00
0x400ce8 1 0.00
0x400cf0 1 0.00
0x400cf8 1 0.00
0x400d00 1 0.00
0x400d08 1 0.00
0x400d10 1 0.00
0x400d18 1 0.00
0x400d20 1 0.00
0x400d28 1 0.00
0x400d30 1 0.00
0x400d38 1 0.00
0x400d48 1 0.00
0x400d50 1 0.00
0x400d58 1 0.00
0x400d60 1 0.00
0x400d68 1 0.00
0x400d70 1 0.00
0x400d78 1 0.00
0x400d80 1 0.00
0x400d88 1 0.00
0x400d90 1 0.00
0x400d98 1 0.00
0x400da0 1 0.00
0x400da8 1 0.00
0x400db0 1 0.00
0x400db8 1 0.00
0x400dc0 1 0.00
0x400dc8 1 0.00
0x400df8 1 0.00
0x400e00 1 0.00
0x400e10 1 0.00
0x400e18 1 0.00
0x400e30 1 0.00
0x400e38 1 0.00
0x400e40 1 0.00
0x400e48 1 0.00
0x400e58 1 0.00
0x400e60 1 0.00
0x400e68 1 0.00
0x400e70 1 0.00
0x400e78 1 0.00
0x401100 1 0.00
0x401108 1 0.00
0x401110 1 0.00
0x401118 1 0.00
0x401128 1 0.00
0x401130 1 0.00
0x401138 1 0.00
0x401140 1 0.00
0x401148 1 0.00
0x401150 1 0.00
0x401158 1 0.00
0x401160 1 0.00
0x401168 1 0.00
0x401170 1 0.00
0x401178 1 0.00
0x401180 1 0.00
0x401188 1 0.00
0x401190 1 0.00
0x401198 1 0.00
0x4011a0 1 0.00
0x4011a8 1 0.00
0x4011b0 1 0.00
0x4011b8 1 0.00
0x4011c0 1 0.00
0x4011c8 1 0.00
0x4011d0 1 0.00
0x4011e8 1 0.00
0x4011f0 1 0.00
0x4011f8 1 0.00
0x401200 1 0.00
0x401208 1 0.00
0x401210 1 0.00
0x401220 1 0.00
0x401228 1 0.00
0x4015c0 1 0.00
0x4015c8 1 0.00
0x4015d0 1 0.00
0x4015d8 1 0.00
0x4015e0 1 0.00
0x4015e8 1 0.00
0x4015f0 1 0.00
0x4015f8 1 0.00
0x401600 1 0.00
0x401608 1 0.00
0x401610 1 0.00
0x401618 1 0.00
0x401620 1 0.00
0x401628 1 0.00
0x401630 1 0.00
0x401638 1 0.00
0x401640 1 0.00
0x401648 1 0.00
0x401650 1 0.00
0x401658 1 0.00
0x401660 1 0.00
0x401668 1 0.00
0x401670 1 0.00
0x401678 1 0.00
0x401680 1 0.00
0x401688 1 0.00
0x401770 1 0.00
0x401778 1 0.00
0x401780 1 0.00
0x401788 1 0.00
0x401790 1 0.00
0x401798 1 0.00
0x4017a0 1 0.00
0x4017b0 1 0.00
0x4017b8 1 0.00
0x4017c0 1 0.00
0x4017c8 1 0.00
0x4017d0 1 0.00
0x4017d8 1 0.00
0x4017e0 1 0.00
0x4017e8 1 0.00
0x4017f0 1 0.00
0x4017f8 1 0.00
0x401800 1 0.00
0x401808 1 0.00
0x401810 1 0.00
0x401818 1 0.00
0x401820 1 0.00
0x401828 1 0.00
0x401830 1 0.00
0x401ac8 1 0.00
0x401ad0 1 0.00
0x401ad8 1 0.00
0x401ae0 1 0.00
0x401ae8 1 0.00
0x401af0 1 0.00
0x401af8 1 0.00
0x401b00 1 0.00
0x401b10 4 0.00
0x401b18 4 0.00
0x401b20 4 0.00
0x401b28 4 0.00
0x401b30 4 0.00
0x401b38 4 0.00
0x401b40 4 0.00
0x401b48 1 0.00
0x401b50 1 0.00
0x401b58 1 0.00
0x401b60 1 0.00
0x401b68 1 0.00
0x401b70 1 0.00
0x401b78 3 0.00
0x401b80 3 0.00
0x401b98 3 0.00
0x401ba0 3 0.00
0x401ba8 3 0.00
0x401bb0 3 0.00
0x401bb8 3 0.00
0x401bc0 3 0.00
0x401bc8 1 0.00
0x401bd0 1 0.00
0x401bd8 3 0.00
0x401be0 3 0.00
0x401be8 3 0.00
0x401bf0 3 0.00
0x401c08 3 0.00
0x401c10 3 0.00
0x401c18 3 0.00
0x401c20 3 0.00
0x401c48 3 0.00
0x401c50 3 0.00
0x401c58 3 0.00
0x401c60 2 0.00
0x401c68 2 0.00
0x401c70 2 0.00
0x401c78 2 0.00
0x401c80 2 0.00
0x401c98 3 0.00
0x401ca0 3 0.00
0x401ca8 1 0.00
0x401cb0 1 0.00
0x401cb8 1 0.00
0x401cc0 1 0.00
0x401cc8 3 0.00
0x401cd0 3 0.00
0x401cd8 2 0.00
0x401ce0 2 0.00
0x401ce8 2 0.00
0x401cf0 2 0.00
0x401cf8 1 0.00
0x401d00 1 0.00
0x401d08 1 0.00
0x401d10 1 0.00
0x401d18 1 0.00
0x401d38 1 0.00
0x401d40 3 0.00
0x401d48 3 0.00
0x401d50 3 0.00
0x401d58 4 0.00
0x401d60 4 0.00
0x401d68 4 0.00
0x401d70 4 0.00
0x401d78 4 0.00
0x401d80 4 0.00
0x401db0 1 0.00
0x401db8 1 0.00
0x401dc0 1 0.00
0x401dc8 1 0.00
0x401e00 1 0.00
0x401e08 1 0.00
0x401e10 1 0.00
0x401e18 1 0.00
0x401e20 1 0.00
0x401e28 1 0.00
0x401e30 2 0.00
0x401e38 2 0.00
0x401e40 2 0.00
0x401e48 2 0.00
0x401e50 2 0.00
0x401e58 2 0.00
0x401e60 2 0.00
0x401e68 2 0.00
0x401e70 1 0.00
0x401e78 1 0.00
0x401e80 1 0.00
0x401e88 1 0.00
0x401e90 1 0.00
0x401e98 1 0.00
0x401ea0 1 0.00
0x401ea8 1 0.00
0x401eb0 1 0.00
0x401eb8 1 0.00
0x401ec0 1 0.00
0x401ec8 1 0.00
0x401ed0 1 0.00
0x401ed8 1 0.00
0x401f38 1 0.00
0x401f40 1 0.00
0x401f48 1 0.00
0x401f50 3 0.00
0x401f58 3 0.00
0x401f60 3 0.00
0x401f68 3 0.00
0x401f70 3 0.00
0x401f78 3 0.00
0x401f80 3 0.00
0x401f88 3 0.00
0x401f90 3 0.00
0x401f98 3 0.00
0x401fa0 4 0.00
0x401fa8 4 0.00
0x401fb0 4 0.00
0x401fb8 4 0.00
0x401fc0 4 0.00
0x401fc8 4 0.00
0x401fd0 4 0.00
0x401fd8 4 0.00
0x401fe0 4 0.00
0x401fe8 4 0.00
0x402018 4 0.00
0x402020 4 0.00
0x402028 4 0.00
0x402030 390 0.24
0x402038 390 0.24
0x402040 390 0.24
0x402048 390 0.24
0x402050 390 0.24
0x402058 390 0.24
0x402060 390 0.24
0x402068 390 0.24
0x402070 390 0.24
0x402078 390 0.24
0x402080 390 0.24
0x402088 390 0.24
0x402090 4 0.00
0x402098 4 0.00
0x4020a0 4 0.00
0x4020a8 12 0.01
0x4020b0 12 0.01
0x4020b8 12 0.01
0x4020c0 12 0.01
0x4020c8 4 0.00
0x4020d0 4 0.00
0x4020f8 4 0.00
0x402100 4 0.00
0x4022d0 1 0.00
0x4022d8 1 0.00
0x4022e0 1 0.00
0x4022e8 1 0.00
0x4022f0 1 0.00
0x4022f8 1 0.00
0x402300 1 0.00
0x402308 1 0.00
0x402310 1 0.00
0x402318 1 0.00
0x402328 1 0.00
0x402330 1 0.00
0x402338 1 0.00
0x402340 1 0.00
0x402348 1 0.00
0x402350 1 0.00
0x402358 1 0.00
0x402360 1 0.00
0x402368 1 0.00
0x402370 1 0.00
0x402378 1 0.00
0x402380 1 0.00
0x402388 1 0.00
0x402390 1 0.00
0x402398 1 0.00
0x4023a0 1 0.00
0x4023a8 1 0.00
0x4023b0 1 0.00
0x4023b8 1 0.00
0x4023c0 1 0.00
0x4023c8 1 0.00
0x4023d0 1 0.00
0x4023d8 1 0.00
0x4023e0 1 0.00
0x4023e8 1 0.00
0x402438 1 0.00
0x402440 1 0.00
0x402448 1 0.00
0x402450 1 0.00
0x402458 1 0.00
0x402460 1 0.00
0x402468 1 0.00
0x402480 1 0.00
0x402488 1 0.00
0x402490 1 0.00
0x402498 1 0.00
0x4024a0 1 0.00
0x4024a8 1 0.00
0x4024b0 1 0.00
0x4024b8 1 0.00
0x4024c0 1 0.00
0x4024c8 1 0.00
0x4024d0 1 0.00
0x4024d8 1 0.00
0x4024e0 1 0.00
0x402530 1 0.00
0x402538 1 0.00
0x402540 1 0.00
0x402548 1 0.00
0x402550 1 0.00
0x402558 1 0.00
0x402560 1 0.00
0x402568 1 0.00
0x402570 1 0.00
0x402578 1 0.00
0x402580 1 0.00
0x402588 1 0.00
0x402590 1 0.00
0x402598 1 0.00
0x4025a0 1 0.00
0x4025a8 1 0.00
0x4025b0 1 0.00
0x4025b8 1 0.00
0x4025c0 1 0.00
0x4025c8 1 0.00
0x4025d0 1 0.00
0x4025d8 1 0.00
0x4025e0 1 0.00
0x4025e8 1 0.00
0x4025f0 1 0.00
0x4025f8 1 0.00
0x402600 1 0.00
0x402608 1 0.00
0x4026c0 1 0.00
0x4026c8 1 0.00
0x4026d0 1 0.00
0x4026d8 1 0.00
0x4026e0 1 0.00
0x402830 1 0.00
0x402838 1 0.00
0x402b48 1 0.00
0x402b50 1 0.00
0x402b58 1 0.00
0x402b60 1 0.00
0x402b68 1 0.00
0x402b70 1 0.00
0x402b78 1 0.00
0x402b80 1 0.00
0x402b88 1 0.00
0x402b90 1 0.00
0x402b98 1 0.00
0x402ba0 1 0.00
0x402bc8 1 0.00
0x402bd0 1 0.00
0x402c00 1 0.00
0x402c08 1 0.00
0x402c10 1 0.00
0x402c18 1 0.00
0x403048 2 0.00
0x403050 2 0.00
0x403058 2 0.00
0x403060 2 0.00
0x403068 2 0.00
0x403070 2 0.00
0x403078 2 0.00
0x403080 2 0.00
0x403088 2 0.00
0x403090 2 0.00
0x403098 2 0.00
0x4030a0 2 0.00
0x4030a8 2 0.00
0x4030b0 2 0.00
0x4030b8 2 0.00
0x4030c0 2 0.00
0x4030c8 2 0.00
0x4030d0 2 0.00
0x4030d8 2 0.00
0x4030e0 2 0.00
0x4030e8 2 0.00
0x4030f0 2 0.00
0x4030f8 2 0.00
0x403100 2 0.00
0x403108 2 0.00
0x403110 2 0.00
0x403118 2 0.00
0x403120 2 0.00
0x4032d8 2 0.00
0x4032e0 2 0.00
0x4032e8 1 0.00
0x4032f0 1 0.00
0x4032f8 1 0.00
0x403300 1 0.00
0x403308 1 0.00
0x403310 1 0.00
0x403318 1 0.00
0x403380 2 0.00
0x403388 2 0.00
0x403390 2 0.00
0x403398 2 0.00
0x4033d0 2 0.00
0x4033d8 2 0.00
0x4033e0 2 0.00
0x4033e8 2 0.00
0x4033f0 2 0.00
0x4033f8 2 0.00
0x403400 2 0.00
0x403408 2 0.00
0x403410 2 0.00
0x403418 2 0.00
0x403420 2 0.00
0x403720 2 0.00
0x403728 2 0.00
0x403730 2 0.00
0x403738 2 0.00
0x403740 2 0.00
0x403748 2 0.00
0x403750 2 0.00
0x403758 2 0.00
0x403760 2 0.00
0x403778 2 0.00
0x403780 2 0.00
0x403788 2 0.00
0x403790 2 0.00
0x403798 2 0.00
0x4037a0 2 0.00
0x4037a8 2 0.00
0x4037b0 2 0.00
0x4037b8 2 0.00
0x4037c0 2 0.00
0x4037c8 2 0.00
0x403c60 2 0.00
0x403c68 2 0.00
0x403c70 2 0.00
0x403c78 2 0.00
0x403c80 2 0.00
0x403c88 2 0.00
0x403c90 2 0.00
0x403c98 2 0.00
0x403ca0 2 0.00
0x403ca8 2 0.00
0x403cb0 2 0.00
0x403cb8 2 0.00
0x403cc0 2 0.00
0x403cc8 2 0.00
0x403cd0 2 0.00
0x403ce8 2 0.00
0x403cf0 2 0.00
0x403cf8 2 0.00
0x403d00 2 0.00
0x403d08 2 0.00
0x403d10 2 0.00
0x403d18 2 0.00
0x403d40 2 0.00
0x403d48 2 0.00
0x403d50 2 0.00
0x403d58 2 0.00
0x403d60 2 0.00
0x403d98 2 0.00
0x403da0 2 0.00
0x403da8 2 0.00
0x403db0 2 0.00
0x403db8 2 0.00
0x403dc0 2 0.00
0x403dc8 2 0.00
0x403dd0 2 0.00
0x403dd8 2 0.00
0x403de0 2 0.00
0x403de8 2 0.00
0x403df0 2 0.00
0x403df8 2 0.00
0x403e00 2 0.00
0x403e08 2 0.00
0x403e10 2 0.00
0x403e18 2 0.00
0x403e20 2 0.00
0x403e28 2 0.00
0x403e30 2 0.00
0x403e38 2 0.00
0x403e40 2 0.00
0x403e48 2 0.00
0x403e50 2 0.00
0x403e58 2 0.00
0x403e60 2 0.00
0x403e68 2 0.00
0x403e70 2 0.00
0x403e78 2 0.00
0x403e80 2 0.00
0x403e88 1 0.00
0x403e90 1 0.00
0x403ea8 1 0.00
0x403eb0 1 0.00
0x403eb8 1 0.00
0x403ec0 1 0.00
0x403ec8 1 0.00
0x403ed0 1 0.00
0x403ed8 1 0.00
0x403f10 1 0.00
0x403f18 1 0.00
0x403f20 1 0.00
0x403f48 2 0.00
0x403f50 2 0.00
0x403f58 2 0.00
0x403f60 2 0.00
0x403f68 2 0.00
0x403f70 2 0.00
0x403f78 2 0.00
0x403f80 2 0.00
0x403f88 2 0.00
0x403fb8 2 0.00
0x404080 2 0.00
0x404088 2 0.00
0x404090 2 0.00
0x4040b8 2 0.00
0x4040c0 2 0.00
0x4040d0 2 0.00
0x4040d8 2 0.00
0x4040e0 2 0.00
0x4040e8 2 0.00
0x4040f0 2 0.00
0x4040f8 2 0.00
0x404128 2 0.00
0x404130 2 0.00
0x404138 2 0.00
0x404140 2 0.00
0x404158 2 0.00
0x404160 2 0.00
0x404168 2 0.00
0x404170 2 0.00
0x404178 2 0.00
0x404180 2 0.00
0x404188 2 0.00
0x404190 2 0.00
0x404728 3 0.00
0x404730 3 0.00
0x404738 3 0.00
0x404740 3 0.00
0x404748 3 0.00
0x404750 3 0.00
0x404758 3 0.00
0x404760 3 0.00
0x404768 3 0.00
0x404770 3 0.00
0x404778 3 0.00
0x404780 3 0.00
0x404788 3 0.00
0x404790 3 0.00
0x404798 3 0.00
0x404940 2 0.00
0x404948 2 0.00
0x404950 2 0.00
0x404958 2 0.00
0x404960 2 0.00
0x404968 2 0.00
0x404de0 3 0.00
0x404de8 3 0.00
0x404df0 3 0.00
0x404df8 3 0.00
0x404e10 3 0.00
0x404e18 3 0.00
0x404e20 3 0.00
0x404e28 3 0.00
0x404e30 3 0.00
0x404e38 3 0.00
0x404e40 3 0.00
0x404e48 3 0.00
0x404e50 3 0.00
0x404e58 3 0.00
0x404e60 3 0.00
0x4056c0 2 0.00
0x4056c8 2 0.00
0x4056d0 2 0.00
0x4056d8 2 0.00
0x4056e0 2 0.00
0x4056e8 2 0.00
0x4056f0 2 0.00
0x4056f8 2 0.00
0x405700 2 0.00
0x405708 2 0.00
0x405710 2 0.00
0x405718 1 0.00
0x405720 1 0.00
0x405728 1 0.00
0x405730 1 0.00
0x405738 1 0.00
0x405740 1 0.00
0x405748 1 0.00
0x405750 1 0.00
0x405778 1 0.00
0x405780 1 0.00
0x4057c0 1 0.00
0x4057c8 1 0.00
0x4057d0 2 0.00
0x4057d8 2 0.00
0x4057e0 2 0.00
0x4057e8 2 0.00
0x4057f0 2 0.00
0x4058d0 2 0.00
0x4058d8 2 0.00
0x4058e0 2 0.00
0x4058e8 2 0.00
0x4058f0 2 0.00
0x405980 3 0.00
0x405988 3 0.00
0x405990 3 0.00
0x4059a0 3 0.00
0x4059a8 3 0.00
0x4059b0 3 0.00
0x4059b8 3 0.00
0x4059c0 3 0.00
0x4059c8 3 0.00
0x4059f0 1 0.00
0x4059f8 1 0.00
0x405a00 1 0.00
0x405a08 1 0.00
0x405a10 1 0.00
sim_num_insn_by_pc.end_dist

ld_text_base             0x00400000 # program text (code) segment base
ld_text_size                  23376 # program text (code) size in bytes
ld_data_base             0x10000000 # program initialized data segment base
ld_data_size                  10704 # program init'ed `.data' and uninit'ed `.bss' size in bytes
ld_stack_base            0x7fffc000 # program stack segment base (highest address in stack)
ld_stack_size                 16384 # program initial stack size
ld_prog_entry            0x00400140 # program entry point (initial PC)
ld_environ_base          0x7fff8000 # program environment base address address
ld_target_big_endian              0 # target executable endian-ness, non-zero if big endian
mem.page_count                   14 # total number of pages allocated
mem.page_mem                    56k # total size of memory pages allocated
mem.ptab_misses                1366 # total first level page table misses
mem.ptab_accesses            834348 # total page table accesses
mem.ptab_miss_rate           0.0016 # first level page table miss rate

+--------------------------------------------------------------+effective code range:         [0, fffffff8]
| effective code range:         [0, fffffff8]                  |
| effective bpred count:        0                              |
| effective sim cycles:         0                              |
| effective bpred misses:       0                              |
| effective icache misses:      0                              |
+--------------------------------------------------------------+effective code range:         [0, fffffff8]

