sim-profile: SimpleScalar/PISA Tool Set version 3.0 of August, 2003.
Copyright (c) 1994-2003 by Todd M. Austin, Ph.D. and SimpleScalar, LLC.
All Rights Reserved. This version of SimpleScalar is licensed for academic
non-commercial use.  No portion of this work may be used by any commercial
entity, or for any commercial purpose, without the prior written permission
of SimpleScalar, LLC (info@simplescalar.com).

sim: command line: /home/dgy/chronos/simplesim-3.0/sim-profile -pcstat sim_num_insn jfdctint 

sim: simulation started @ Wed Mar  4 18:09:50 2015, options follow:

sim-profile: This simulator implements a functional simulator with
profiling support.  Run with the `-h' flag to see profiling options
available.

# -config                     # load configuration from a file
# -dumpconfig                 # dump configuration to a file
# -h                    false # print help message    
# -v                    false # verbose operation     
# -d                    false # enable debug message  
# -i                    false # start in Dlite debugger
-seed                       1 # random number generator seed (0 for timer seed)
# -q                    false # initialize and terminate immediately
# -chkpt               <null> # restore EIO trace execution from <fname>
# -redir:sim           <null> # redirect simulator output to file (non-interactive only)
# -redir:prog          <null> # redirect simulated program output to file
-nice                       0 # simulator scheduling priority
-max:inst                   0 # maximum number of inst's to execute
-all                    false # enable all profile options
-iclass                 false # enable instruction class profiling
-iprof                  false # enable instruction profiling
-brprof                 false # enable branch instruction profiling
-amprof                 false # enable address mode profiling
-segprof                false # enable load/store address segment profiling
-tsymprof               false # enable text symbol profiling
-taddrprof              false # enable text address profiling
-dsymprof               false # enable data symbol profiling
-internal               false # include compiler-internal symbols during symbol profiling
# -pcstat        sim_num_insn # profile stat(s) against text addr's (mult uses ok)

sim: ** starting functional simulation **

sim: ** simulation statistics **
sim_num_insn                 995661 # total number of instructions executed
sim_num_refs                  85521 # total number of loads and stores executed
sim_elapsed_time                  1 # total simulation time in seconds
sim_inst_rate           995661.0000 # simulation speed (in insts/sec)

sim_num_insn_by_pc     # total number of instructions executed (by text address)
sim_num_insn_by_pc.count = 1128
sim_num_insn_by_pc.total = 995660
sim_num_insn_by_pc.imin = 0x400140
sim_num_insn_by_pc.imax = 0x406120
sim_num_insn_by_pc.average = 882.6773
sim_num_insn_by_pc.std_dev = 2366.7083
sim_num_insn_by_pc.overflows = 0
# pdf == prob dist fn, cdf == cumulative dist fn
#          index      count    pdf 
sim_num_insn_by_pc.start_dist
0x400140 1 0.00
0x400148 1 0.00
0x400150 1 0.00
0x400158 1 0.00
0x400160 1 0.00
0x400168 1 0.00
0x400170 1 0.00
0x400178 1 0.00
0x400180 1 0.00
0x400188 1 0.00
0x400190 1 0.00
0x400198 1 0.00
0x4001a0 1 0.00
0x4001a8 1 0.00
0x4001b0 1 0.00
0x4001b8 1 0.00
0x4001c0 1 0.00
0x4001c8 1 0.00
0x4001d0 1 0.00
0x4001d8 1 0.00
0x4001e0 1 0.00
0x4001f0 1 0.00
0x4001f8 1 0.00
0x400200 1 0.00
0x400208 1 0.00
0x400210 1 0.00
0x400218 1 0.00
0x400220 1 0.00
0x400228 1 0.00
0x400230 1 0.00
0x400238 1 0.00
0x400240 1 0.00
0x400248 1 0.00
0x400250 1 0.00
0x400258 16384 1.65
0x400260 16384 1.65
0x400268 16384 1.65
0x400270 16384 1.65
0x400278 16384 1.65
0x400280 16384 1.65
0x400288 16384 1.65
0x400290 16384 1.65
0x400298 16384 1.65
0x4002a0 16384 1.65
0x4002a8 16384 1.65
0x4002b0 16384 1.65
0x4002b8 16384 1.65
0x4002c0 16384 1.65
0x4002c8 16384 1.65
0x4002d0 16384 1.65
0x4002d8 16384 1.65
0x4002e0 16384 1.65
0x4002e8 16384 1.65
0x4002f0 16384 1.65
0x4002f8 16384 1.65
0x400300 16384 1.65
0x400308 1 0.00
0x400310 1 0.00
0x400318 1 0.00
0x400320 1 0.00
0x400328 1 0.00
0x400330 256 0.03
0x400338 256 0.03
0x400340 256 0.03
0x400348 2048 0.21
0x400350 2048 0.21
0x400358 2048 0.21
0x400360 2048 0.21
0x400368 2048 0.21
0x400370 2048 0.21
0x400378 2048 0.21
0x400380 2048 0.21
0x400388 2048 0.21
0x400390 2048 0.21
0x400398 2048 0.21
0x4003a0 2048 0.21
0x4003a8 2048 0.21
0x4003b0 2048 0.21
0x4003b8 2048 0.21
0x4003c0 2048 0.21
0x4003c8 2048 0.21
0x4003d0 2048 0.21
0x4003d8 2048 0.21
0x4003e0 2048 0.21
0x4003e8 2048 0.21
0x4003f0 2048 0.21
0x4003f8 2048 0.21
0x400400 2048 0.21
0x400408 2048 0.21
0x400410 2048 0.21
0x400418 2048 0.21
0x400420 2048 0.21
0x400428 2048 0.21
0x400430 2048 0.21
0x400438 2048 0.21
0x400440 2048 0.21
0x400448 2048 0.21
0x400450 2048 0.21
0x400458 2048 0.21
0x400460 2048 0.21
0x400468 2048 0.21
0x400470 2048 0.21
0x400478 2048 0.21
0x400480 2048 0.21
0x400488 2048 0.21
0x400490 2048 0.21
0x400498 2048 0.21
0x4004a0 2048 0.21
0x4004a8 2048 0.21
0x4004b0 2048 0.21
0x4004b8 2048 0.21
0x4004c0 2048 0.21
0x4004c8 2048 0.21
0x4004d0 2048 0.21
0x4004d8 2048 0.21
0x4004e0 2048 0.21
0x4004e8 2048 0.21
0x4004f0 2048 0.21
0x4004f8 2048 0.21
0x400500 2048 0.21
0x400508 2048 0.21
0x400510 2048 0.21
0x400518 2048 0.21
0x400520 2048 0.21
0x400528 2048 0.21
0x400530 2048 0.21
0x400538 2048 0.21
0x400540 2048 0.21
0x400548 2048 0.21
0x400550 2048 0.21
0x400558 2048 0.21
0x400560 2048 0.21
0x400568 2048 0.21
0x400570 2048 0.21
0x400578 2048 0.21
0x400580 2048 0.21
0x400588 2048 0.21
0x400590 2048 0.21
0x400598 2048 0.21
0x4005a0 2048 0.21
0x4005a8 2048 0.21
0x4005b0 2048 0.21
0x4005b8 2048 0.21
0x4005c0 2048 0.21
0x4005c8 2048 0.21
0x4005d0 2048 0.21
0x4005d8 2048 0.21
0x4005e0 2048 0.21
0x4005e8 2048 0.21
0x4005f0 2048 0.21
0x4005f8 2048 0.21
0x400600 2048 0.21
0x400608 2048 0.21
0x400610 2048 0.21
0x400618 2048 0.21
0x400620 2048 0.21
0x400628 2048 0.21
0x400630 2048 0.21
0x400638 2048 0.21
0x400640 2048 0.21
0x400648 2048 0.21
0x400650 2048 0.21
0x400658 2048 0.21
0x400660 2048 0.21
0x400668 2048 0.21
0x400670 2048 0.21
0x400678 2048 0.21
0x400680 2048 0.21
0x400688 2048 0.21
0x400690 2048 0.21
0x400698 2048 0.21
0x4006a0 2048 0.21
0x4006a8 2048 0.21
0x4006b0 2048 0.21
0x4006b8 2048 0.21
0x4006c0 2048 0.21
0x4006c8 2048 0.21
0x4006d0 2048 0.21
0x4006d8 2048 0.21
0x4006e0 2048 0.21
0x4006e8 2048 0.21
0x4006f0 2048 0.21
0x4006f8 2048 0.21
0x400700 2048 0.21
0x400708 2048 0.21
0x400710 2048 0.21
0x400718 2048 0.21
0x400720 2048 0.21
0x400728 2048 0.21
0x400730 2048 0.21
0x400738 2048 0.21
0x400740 2048 0.21
0x400748 2048 0.21
0x400750 2048 0.21
0x400758 2048 0.21
0x400760 2048 0.21
0x400768 2048 0.21
0x400770 2048 0.21
0x400778 2048 0.21
0x400780 2048 0.21
0x400788 2048 0.21
0x400790 2048 0.21
0x400798 2048 0.21
0x4007a0 2048 0.21
0x4007a8 2048 0.21
0x4007b0 2048 0.21
0x4007b8 2048 0.21
0x4007c0 2048 0.21
0x4007c8 2048 0.21
0x4007d0 2048 0.21
0x4007d8 2048 0.21
0x4007e0 2048 0.21
0x4007e8 2048 0.21
0x4007f0 2048 0.21
0x4007f8 2048 0.21
0x400800 2048 0.21
0x400808 256 0.03
0x400810 256 0.03
0x400818 256 0.03
0x400820 2048 0.21
0x400828 2048 0.21
0x400830 2048 0.21
0x400838 2048 0.21
0x400840 2048 0.21
0x400848 2048 0.21
0x400850 2048 0.21
0x400858 2048 0.21
0x400860 2048 0.21
0x400868 2048 0.21
0x400870 2048 0.21
0x400878 2048 0.21
0x400880 2048 0.21
0x400888 2048 0.21
0x400890 2048 0.21
0x400898 2048 0.21
0x4008a0 2048 0.21
0x4008a8 2048 0.21
0x4008b0 2048 0.21
0x4008b8 2048 0.21
0x4008c0 2048 0.21
0x4008c8 2048 0.21
0x4008d0 2048 0.21
0x4008d8 2048 0.21
0x4008e0 2048 0.21
0x4008e8 2048 0.21
0x4008f0 2048 0.21
0x4008f8 2048 0.21
0x400900 2048 0.21
0x400908 2048 0.21
0x400910 2048 0.21
0x400918 2048 0.21
0x400920 2048 0.21
0x400928 2048 0.21
0x400930 2048 0.21
0x400938 2048 0.21
0x400940 2048 0.21
0x400948 2048 0.21
0x400950 2048 0.21
0x400958 2048 0.21
0x400960 2048 0.21
0x400968 2048 0.21
0x400970 2048 0.21
0x400978 2048 0.21
0x400980 2048 0.21
0x400988 2048 0.21
0x400990 2048 0.21
0x400998 2048 0.21
0x4009a0 2048 0.21
0x4009a8 2048 0.21
0x4009b0 2048 0.21
0x4009b8 2048 0.21
0x4009c0 2048 0.21
0x4009c8 2048 0.21
0x4009d0 2048 0.21
0x4009d8 2048 0.21
0x4009e0 2048 0.21
0x4009e8 2048 0.21
0x4009f0 2048 0.21
0x4009f8 2048 0.21
0x400a00 2048 0.21
0x400a08 2048 0.21
0x400a10 2048 0.21
0x400a18 2048 0.21
0x400a20 2048 0.21
0x400a28 2048 0.21
0x400a30 2048 0.21
0x400a38 2048 0.21
0x400a40 2048 0.21
0x400a48 2048 0.21
0x400a50 2048 0.21
0x400a58 2048 0.21
0x400a60 2048 0.21
0x400a68 2048 0.21
0x400a70 2048 0.21
0x400a78 2048 0.21
0x400a80 2048 0.21
0x400a88 2048 0.21
0x400a90 2048 0.21
0x400a98 2048 0.21
0x400aa0 2048 0.21
0x400aa8 2048 0.21
0x400ab0 2048 0.21
0x400ab8 2048 0.21
0x400ac0 2048 0.21
0x400ac8 2048 0.21
0x400ad0 2048 0.21
0x400ad8 2048 0.21
0x400ae0 2048 0.21
0x400ae8 2048 0.21
0x400af0 2048 0.21
0x400af8 2048 0.21
0x400b00 2048 0.21
0x400b08 2048 0.21
0x400b10 2048 0.21
0x400b18 2048 0.21
0x400b20 2048 0.21
0x400b28 2048 0.21
0x400b30 2048 0.21
0x400b38 2048 0.21
0x400b40 2048 0.21
0x400b48 2048 0.21
0x400b50 2048 0.21
0x400b58 2048 0.21
0x400b60 2048 0.21
0x400b68 2048 0.21
0x400b70 2048 0.21
0x400b78 2048 0.21
0x400b80 2048 0.21
0x400b88 2048 0.21
0x400b90 2048 0.21
0x400b98 2048 0.21
0x400ba0 2048 0.21
0x400ba8 2048 0.21
0x400bb0 2048 0.21
0x400bb8 2048 0.21
0x400bc0 2048 0.21
0x400bc8 2048 0.21
0x400bd0 2048 0.21
0x400bd8 2048 0.21
0x400be0 2048 0.21
0x400be8 2048 0.21
0x400bf0 2048 0.21
0x400bf8 2048 0.21
0x400c00 2048 0.21
0x400c08 2048 0.21
0x400c10 2048 0.21
0x400c18 2048 0.21
0x400c20 2048 0.21
0x400c28 2048 0.21
0x400c30 2048 0.21
0x400c38 2048 0.21
0x400c40 2048 0.21
0x400c48 2048 0.21
0x400c50 2048 0.21
0x400c58 2048 0.21
0x400c60 2048 0.21
0x400c68 2048 0.21
0x400c70 2048 0.21
0x400c78 2048 0.21
0x400c80 2048 0.21
0x400c88 2048 0.21
0x400c90 2048 0.21
0x400c98 2048 0.21
0x400ca0 2048 0.21
0x400ca8 2048 0.21
0x400cb0 2048 0.21
0x400cb8 2048 0.21
0x400cc0 2048 0.21
0x400cc8 2048 0.21
0x400cd0 2048 0.21
0x400cd8 2048 0.21
0x400ce0 2048 0.21
0x400ce8 2048 0.21
0x400cf0 256 0.03
0x400cf8 256 0.03
0x400d00 256 0.03
0x400d08 256 0.03
0x400d10 1 0.00
0x400d18 1 0.00
0x400d20 1 0.00
0x400d28 1 0.00
0x400d30 1 0.00
0x400d38 1 0.00
0x400d40 1 0.00
0x400d48 1 0.00
0x400d50 1 0.00
0x400d60 1 0.00
0x400d68 1 0.00
0x400d70 1 0.00
0x400d78 1 0.00
0x400d80 1 0.00
0x400d88 1 0.00
0x400d90 1 0.00
0x400d98 1 0.00
0x400da0 1 0.00
0x400da8 1 0.00
0x400db0 1 0.00
0x400db8 1 0.00
0x400dc0 1 0.00
0x400dc8 1 0.00
0x400dd0 1 0.00
0x400dd8 1 0.00
0x400de0 1 0.00
0x400de8 1 0.00
0x400df0 1 0.00
0x400df8 1 0.00
0x400e00 1 0.00
0x400e08 1 0.00
0x400e10 1 0.00
0x400ec0 1 0.00
0x400ec8 1 0.00
0x400ed0 1 0.00
0x400ed8 1 0.00
0x400ee0 1 0.00
0x400f30 1 0.00
0x400f38 1 0.00
0x400f40 1 0.00
0x400f48 1 0.00
0x400f50 1 0.00
0x400f58 1 0.00
0x400f60 1 0.00
0x400f68 1 0.00
0x400f70 1 0.00
0x400f78 1 0.00
0x400f80 1 0.00
0x400f88 1 0.00
0x400f98 1 0.00
0x400fa0 1 0.00
0x400fa8 1 0.00
0x400fb0 1 0.00
0x400fb8 1 0.00
0x4011d0 1 0.00
0x4011d8 1 0.00
0x4011e0 1 0.00
0x4011e8 1 0.00
0x4011f0 1 0.00
0x4011f8 1 0.00
0x401200 1 0.00
0x401220 1 0.00
0x401240 1 0.00
0x401248 1 0.00
0x401250 1 0.00
0x401258 1 0.00
0x401260 1 0.00
0x401268 1 0.00
0x401288 1 0.00
0x401290 1 0.00
0x401298 1 0.00
0x4012a0 1 0.00
0x4012c0 1 0.00
0x4012c8 1 0.00
0x4012d0 1 0.00
0x4012d8 1 0.00
0x4012e0 1 0.00
0x4012e8 1 0.00
0x4012f0 1 0.00
0x4012f8 1 0.00
0x401300 1 0.00
0x401308 1 0.00
0x401310 1 0.00
0x401318 1 0.00
0x401320 1 0.00
0x401328 1 0.00
0x401330 1 0.00
0x401338 1 0.00
0x401340 1 0.00
0x401348 1 0.00
0x401350 1 0.00
0x401358 1 0.00
0x401360 1 0.00
0x401368 1 0.00
0x401370 1 0.00
0x401378 1 0.00
0x401388 1 0.00
0x401390 1 0.00
0x401398 1 0.00
0x4013a0 1 0.00
0x4013a8 1 0.00
0x4013b0 1 0.00
0x4013b8 1 0.00
0x4013c0 1 0.00
0x4013c8 1 0.00
0x4013d0 1 0.00
0x4013d8 1 0.00
0x4013e0 1 0.00
0x4013e8 1 0.00
0x4013f0 1 0.00
0x4013f8 1 0.00
0x401400 1 0.00
0x401408 1 0.00
0x401410 1 0.00
0x401418 1 0.00
0x401420 1 0.00
0x401428 1 0.00
0x401430 1 0.00
0x401438 1 0.00
0x401440 1 0.00
0x401448 1 0.00
0x401458 1 0.00
0x401460 1 0.00
0x401468 1 0.00
0x401470 1 0.00
0x401478 1 0.00
0x401480 1 0.00
0x401488 1 0.00
0x401490 1 0.00
0x401498 1 0.00
0x4014a0 1 0.00
0x4014a8 1 0.00
0x4014b0 1 0.00
0x4014b8 1 0.00
0x4014c0 1 0.00
0x4014c8 1 0.00
0x4014d0 1 0.00
0x4014d8 1 0.00
0x401508 1 0.00
0x401510 1 0.00
0x401520 1 0.00
0x401528 1 0.00
0x401540 1 0.00
0x401548 1 0.00
0x401550 1 0.00
0x401558 1 0.00
0x401568 1 0.00
0x401570 1 0.00
0x401578 1 0.00
0x401580 1 0.00
0x401588 1 0.00
0x401810 1 0.00
0x401818 1 0.00
0x401820 1 0.00
0x401828 1 0.00
0x401838 1 0.00
0x401840 1 0.00
0x401848 1 0.00
0x401850 1 0.00
0x401858 1 0.00
0x401860 1 0.00
0x401868 1 0.00
0x401870 1 0.00
0x401878 1 0.00
0x401880 1 0.00
0x401888 1 0.00
0x401890 1 0.00
0x401898 1 0.00
0x4018a0 1 0.00
0x4018a8 1 0.00
0x4018b0 1 0.00
0x4018b8 1 0.00
0x4018c0 1 0.00
0x4018c8 1 0.00
0x4018d0 1 0.00
0x4018d8 1 0.00
0x4018e0 1 0.00
0x4018f8 1 0.00
0x401900 1 0.00
0x401908 1 0.00
0x401910 1 0.00
0x401918 1 0.00
0x401920 1 0.00
0x401930 1 0.00
0x401938 1 0.00
0x401cd0 1 0.00
0x401cd8 1 0.00
0x401ce0 1 0.00
0x401ce8 1 0.00
0x401cf0 1 0.00
0x401cf8 1 0.00
0x401d00 1 0.00
0x401d08 1 0.00
0x401d10 1 0.00
0x401d18 1 0.00
0x401d20 1 0.00
0x401d28 1 0.00
0x401d30 1 0.00
0x401d38 1 0.00
0x401d40 1 0.00
0x401d48 1 0.00
0x401d50 1 0.00
0x401d58 1 0.00
0x401d60 1 0.00
0x401d68 1 0.00
0x401d70 1 0.00
0x401d78 1 0.00
0x401d80 1 0.00
0x401d88 1 0.00
0x401d90 1 0.00
0x401d98 1 0.00
0x401e80 1 0.00
0x401e88 1 0.00
0x401e90 1 0.00
0x401e98 1 0.00
0x401ea0 1 0.00
0x401ea8 1 0.00
0x401eb0 1 0.00
0x401ec0 1 0.00
0x401ec8 1 0.00
0x401ed0 1 0.00
0x401ed8 1 0.00
0x401ee0 1 0.00
0x401ee8 1 0.00
0x401ef0 1 0.00
0x401ef8 1 0.00
0x401f00 1 0.00
0x401f08 1 0.00
0x401f10 1 0.00
0x401f18 1 0.00
0x401f20 1 0.00
0x401f28 1 0.00
0x401f30 1 0.00
0x401f38 1 0.00
0x401f40 1 0.00
0x4021d8 1 0.00
0x4021e0 1 0.00
0x4021e8 1 0.00
0x4021f0 1 0.00
0x4021f8 1 0.00
0x402200 1 0.00
0x402208 1 0.00
0x402210 1 0.00
0x402220 4 0.00
0x402228 4 0.00
0x402230 4 0.00
0x402238 4 0.00
0x402240 4 0.00
0x402248 4 0.00
0x402250 4 0.00
0x402258 1 0.00
0x402260 1 0.00
0x402268 1 0.00
0x402270 1 0.00
0x402278 1 0.00
0x402280 1 0.00
0x402288 3 0.00
0x402290 3 0.00
0x4022a8 3 0.00
0x4022b0 3 0.00
0x4022b8 3 0.00
0x4022c0 3 0.00
0x4022c8 3 0.00
0x4022d0 3 0.00
0x4022d8 1 0.00
0x4022e0 1 0.00
0x4022e8 3 0.00
0x4022f0 3 0.00
0x4022f8 3 0.00
0x402300 3 0.00
0x402318 3 0.00
0x402320 3 0.00
0x402328 3 0.00
0x402330 3 0.00
0x402358 3 0.00
0x402360 3 0.00
0x402368 3 0.00
0x402370 2 0.00
0x402378 2 0.00
0x402380 2 0.00
0x402388 2 0.00
0x402390 2 0.00
0x4023a8 3 0.00
0x4023b0 3 0.00
0x4023b8 1 0.00
0x4023c0 1 0.00
0x4023c8 1 0.00
0x4023d0 1 0.00
0x4023d8 3 0.00
0x4023e0 3 0.00
0x4023e8 2 0.00
0x4023f0 2 0.00
0x4023f8 2 0.00
0x402400 2 0.00
0x402408 1 0.00
0x402410 1 0.00
0x402418 1 0.00
0x402420 1 0.00
0x402428 1 0.00
0x402448 1 0.00
0x402450 3 0.00
0x402458 3 0.00
0x402460 3 0.00
0x402468 4 0.00
0x402470 4 0.00
0x402478 4 0.00
0x402480 4 0.00
0x402488 4 0.00
0x402490 4 0.00
0x4024c0 1 0.00
0x4024c8 1 0.00
0x4024d0 1 0.00
0x4024d8 1 0.00
0x402510 1 0.00
0x402518 1 0.00
0x402520 1 0.00
0x402528 1 0.00
0x402530 1 0.00
0x402538 1 0.00
0x402540 3 0.00
0x402548 3 0.00
0x402550 3 0.00
0x402558 3 0.00
0x402560 3 0.00
0x402568 3 0.00
0x402570 3 0.00
0x402578 3 0.00
0x402580 2 0.00
0x402588 2 0.00
0x402590 2 0.00
0x402598 2 0.00
0x4025a0 2 0.00
0x4025a8 2 0.00
0x4025b0 1 0.00
0x4025b8 1 0.00
0x4025c0 1 0.00
0x4025c8 1 0.00
0x402648 1 0.00
0x402650 1 0.00
0x402658 1 0.00
0x402660 3 0.00
0x402668 3 0.00
0x402670 3 0.00
0x402678 3 0.00
0x402680 3 0.00
0x402688 3 0.00
0x402690 3 0.00
0x402698 3 0.00
0x4026a0 3 0.00
0x4026a8 3 0.00
0x4026b0 4 0.00
0x4026b8 4 0.00
0x4026c0 4 0.00
0x4026c8 4 0.00
0x4026d0 4 0.00
0x4026d8 4 0.00
0x4026e0 4 0.00
0x4026e8 4 0.00
0x4026f0 4 0.00
0x4026f8 4 0.00
0x402728 4 0.00
0x402730 4 0.00
0x402738 4 0.00
0x402740 390 0.04
0x402748 390 0.04
0x402750 390 0.04
0x402758 390 0.04
0x402760 390 0.04
0x402768 390 0.04
0x402770 390 0.04
0x402778 390 0.04
0x402780 390 0.04
0x402788 390 0.04
0x402790 390 0.04
0x402798 390 0.04
0x4027a0 4 0.00
0x4027a8 4 0.00
0x4027b0 4 0.00
0x4027b8 12 0.00
0x4027c0 12 0.00
0x4027c8 12 0.00
0x4027d0 12 0.00
0x4027d8 4 0.00
0x4027e0 4 0.00
0x402808 4 0.00
0x402810 4 0.00
0x4029e0 1 0.00
0x4029e8 1 0.00
0x4029f0 1 0.00
0x4029f8 1 0.00
0x402a00 1 0.00
0x402a08 1 0.00
0x402a10 1 0.00
0x402a18 1 0.00
0x402a20 1 0.00
0x402a28 1 0.00
0x402a38 1 0.00
0x402a40 1 0.00
0x402a48 1 0.00
0x402a50 1 0.00
0x402a58 1 0.00
0x402a60 1 0.00
0x402a68 1 0.00
0x402a70 1 0.00
0x402a78 1 0.00
0x402a80 1 0.00
0x402a88 1 0.00
0x402a90 1 0.00
0x402a98 1 0.00
0x402aa0 1 0.00
0x402aa8 1 0.00
0x402ab0 1 0.00
0x402ab8 1 0.00
0x402ac0 1 0.00
0x402ac8 1 0.00
0x402ad0 1 0.00
0x402ad8 1 0.00
0x402ae0 1 0.00
0x402ae8 1 0.00
0x402af0 1 0.00
0x402af8 1 0.00
0x402b48 1 0.00
0x402b50 1 0.00
0x402b58 1 0.00
0x402b60 1 0.00
0x402b68 1 0.00
0x402b70 1 0.00
0x402b78 1 0.00
0x402b90 1 0.00
0x402b98 1 0.00
0x402ba0 1 0.00
0x402ba8 1 0.00
0x402bb0 1 0.00
0x402bb8 1 0.00
0x402bc0 1 0.00
0x402bc8 1 0.00
0x402bd0 1 0.00
0x402bd8 1 0.00
0x402be0 1 0.00
0x402be8 1 0.00
0x402bf0 1 0.00
0x402c40 1 0.00
0x402c48 1 0.00
0x402c50 1 0.00
0x402c58 1 0.00
0x402c60 1 0.00
0x402c68 1 0.00
0x402c70 1 0.00
0x402c78 1 0.00
0x402c80 1 0.00
0x402c88 1 0.00
0x402c90 1 0.00
0x402c98 1 0.00
0x402ca0 1 0.00
0x402ca8 1 0.00
0x402cb0 1 0.00
0x402cb8 1 0.00
0x402cc0 1 0.00
0x402cc8 1 0.00
0x402cd0 1 0.00
0x402cd8 1 0.00
0x402ce0 1 0.00
0x402ce8 1 0.00
0x402cf0 1 0.00
0x402cf8 1 0.00
0x402d00 1 0.00
0x402d08 1 0.00
0x402d10 1 0.00
0x402d18 1 0.00
0x402dd0 1 0.00
0x402dd8 1 0.00
0x402de0 1 0.00
0x402de8 1 0.00
0x402df0 1 0.00
0x402f40 1 0.00
0x402f48 1 0.00
0x403258 1 0.00
0x403260 1 0.00
0x403268 1 0.00
0x403270 1 0.00
0x403278 1 0.00
0x403280 1 0.00
0x403288 1 0.00
0x403290 1 0.00
0x403298 1 0.00
0x4032a0 1 0.00
0x4032a8 1 0.00
0x4032b0 1 0.00
0x4032d8 1 0.00
0x4032e0 1 0.00
0x403310 1 0.00
0x403318 1 0.00
0x403320 1 0.00
0x403328 1 0.00
0x403758 2 0.00
0x403760 2 0.00
0x403768 2 0.00
0x403770 2 0.00
0x403778 2 0.00
0x403780 2 0.00
0x403788 2 0.00
0x403790 2 0.00
0x403798 2 0.00
0x4037a0 2 0.00
0x4037a8 2 0.00
0x4037b0 2 0.00
0x4037b8 2 0.00
0x4037c0 2 0.00
0x4037c8 2 0.00
0x4037d0 2 0.00
0x4037d8 2 0.00
0x4037e0 2 0.00
0x4037e8 2 0.00
0x4037f0 2 0.00
0x4037f8 2 0.00
0x403800 2 0.00
0x403808 2 0.00
0x403810 2 0.00
0x403818 2 0.00
0x403820 2 0.00
0x403828 2 0.00
0x403830 2 0.00
0x4039e8 2 0.00
0x4039f0 2 0.00
0x4039f8 1 0.00
0x403a00 1 0.00
0x403a08 1 0.00
0x403a10 1 0.00
0x403a18 1 0.00
0x403a20 1 0.00
0x403a28 1 0.00
0x403a90 2 0.00
0x403a98 2 0.00
0x403aa0 2 0.00
0x403aa8 2 0.00
0x403ae0 2 0.00
0x403ae8 2 0.00
0x403af0 2 0.00
0x403af8 2 0.00
0x403b00 2 0.00
0x403b08 2 0.00
0x403b10 2 0.00
0x403b18 2 0.00
0x403b20 2 0.00
0x403b28 2 0.00
0x403b30 2 0.00
0x403e30 2 0.00
0x403e38 2 0.00
0x403e40 2 0.00
0x403e48 2 0.00
0x403e50 2 0.00
0x403e58 2 0.00
0x403e60 2 0.00
0x403e68 2 0.00
0x403e70 2 0.00
0x403e88 2 0.00
0x403e90 2 0.00
0x403e98 2 0.00
0x403ea0 2 0.00
0x403ea8 2 0.00
0x403eb0 2 0.00
0x403eb8 2 0.00
0x403ec0 2 0.00
0x403ec8 2 0.00
0x403ed0 2 0.00
0x403ed8 2 0.00
0x404370 2 0.00
0x404378 2 0.00
0x404380 2 0.00
0x404388 2 0.00
0x404390 2 0.00
0x404398 2 0.00
0x4043a0 2 0.00
0x4043a8 2 0.00
0x4043b0 2 0.00
0x4043b8 2 0.00
0x4043c0 2 0.00
0x4043c8 2 0.00
0x4043d0 2 0.00
0x4043d8 2 0.00
0x4043e0 2 0.00
0x4043f8 2 0.00
0x404400 2 0.00
0x404408 2 0.00
0x404410 2 0.00
0x404418 2 0.00
0x404420 2 0.00
0x404428 2 0.00
0x404450 2 0.00
0x404458 2 0.00
0x404460 2 0.00
0x404468 2 0.00
0x404470 2 0.00
0x4044a8 2 0.00
0x4044b0 2 0.00
0x4044b8 2 0.00
0x4044c0 2 0.00
0x4044c8 2 0.00
0x4044d0 2 0.00
0x4044d8 2 0.00
0x4044e0 2 0.00
0x4044e8 2 0.00
0x4044f0 2 0.00
0x4044f8 2 0.00
0x404500 2 0.00
0x404508 2 0.00
0x404510 2 0.00
0x404518 2 0.00
0x404520 2 0.00
0x404528 2 0.00
0x404530 2 0.00
0x404538 2 0.00
0x404540 2 0.00
0x404548 2 0.00
0x404550 2 0.00
0x404558 2 0.00
0x404560 2 0.00
0x404568 2 0.00
0x404570 2 0.00
0x404578 2 0.00
0x404580 2 0.00
0x404588 2 0.00
0x404590 2 0.00
0x404598 1 0.00
0x4045a0 1 0.00
0x4045b8 1 0.00
0x4045c0 1 0.00
0x4045c8 1 0.00
0x4045d0 1 0.00
0x4045d8 1 0.00
0x4045e0 1 0.00
0x4045e8 1 0.00
0x404620 1 0.00
0x404628 1 0.00
0x404630 1 0.00
0x404658 2 0.00
0x404660 2 0.00
0x404668 2 0.00
0x404670 2 0.00
0x404678 2 0.00
0x404680 2 0.00
0x404688 2 0.00
0x404690 2 0.00
0x404698 2 0.00
0x4046c8 2 0.00
0x404790 2 0.00
0x404798 2 0.00
0x4047a0 2 0.00
0x4047c8 2 0.00
0x4047d0 2 0.00
0x4047e0 2 0.00
0x4047e8 2 0.00
0x4047f0 2 0.00
0x4047f8 2 0.00
0x404800 2 0.00
0x404808 2 0.00
0x404838 2 0.00
0x404840 2 0.00
0x404848 2 0.00
0x404850 2 0.00
0x404868 2 0.00
0x404870 2 0.00
0x404878 2 0.00
0x404880 2 0.00
0x404888 2 0.00
0x404890 2 0.00
0x404898 2 0.00
0x4048a0 2 0.00
0x404e38 3 0.00
0x404e40 3 0.00
0x404e48 3 0.00
0x404e50 3 0.00
0x404e58 3 0.00
0x404e60 3 0.00
0x404e68 3 0.00
0x404e70 3 0.00
0x404e78 3 0.00
0x404e80 3 0.00
0x404e88 3 0.00
0x404e90 3 0.00
0x404e98 3 0.00
0x404ea0 3 0.00
0x404ea8 3 0.00
0x405050 2 0.00
0x405058 2 0.00
0x405060 2 0.00
0x405068 2 0.00
0x405070 2 0.00
0x405078 2 0.00
0x4054f0 3 0.00
0x4054f8 3 0.00
0x405500 3 0.00
0x405508 3 0.00
0x405520 3 0.00
0x405528 3 0.00
0x405530 3 0.00
0x405538 3 0.00
0x405540 3 0.00
0x405548 3 0.00
0x405550 3 0.00
0x405558 3 0.00
0x405560 3 0.00
0x405568 3 0.00
0x405570 3 0.00
0x405dd0 2 0.00
0x405dd8 2 0.00
0x405de0 2 0.00
0x405de8 2 0.00
0x405df0 2 0.00
0x405df8 2 0.00
0x405e00 2 0.00
0x405e08 2 0.00
0x405e10 2 0.00
0x405e18 2 0.00
0x405e20 2 0.00
0x405e28 1 0.00
0x405e30 1 0.00
0x405e38 1 0.00
0x405e40 1 0.00
0x405e48 1 0.00
0x405e50 1 0.00
0x405e58 1 0.00
0x405e60 1 0.00
0x405e88 1 0.00
0x405e90 1 0.00
0x405ed0 1 0.00
0x405ed8 1 0.00
0x405ee0 2 0.00
0x405ee8 2 0.00
0x405ef0 2 0.00
0x405ef8 2 0.00
0x405f00 2 0.00
0x405fe0 2 0.00
0x405fe8 2 0.00
0x405ff0 2 0.00
0x405ff8 2 0.00
0x406000 2 0.00
0x406090 3 0.00
0x406098 3 0.00
0x4060a0 3 0.00
0x4060b0 3 0.00
0x4060b8 3 0.00
0x4060c0 3 0.00
0x4060c8 3 0.00
0x4060d0 3 0.00
0x4060d8 3 0.00
0x406100 1 0.00
0x406108 1 0.00
0x406110 1 0.00
0x406118 1 0.00
0x406120 1 0.00
sim_num_insn_by_pc.end_dist

ld_text_base             0x00400000 # program text (code) segment base
ld_text_size                  25184 # program text (code) size in bytes
ld_data_base             0x10000000 # program initialized data segment base
ld_data_size                  66576 # program init'ed `.data' and uninit'ed `.bss' size in bytes
ld_stack_base            0x7fffc000 # program stack segment base (highest address in stack)
ld_stack_size                 16384 # program initial stack size
ld_prog_entry            0x00400140 # program entry point (initial PC)
ld_environ_base          0x7fff8000 # program environment base address address
ld_target_big_endian              0 # target executable endian-ness, non-zero if big endian
mem.page_count                   29 # total number of pages allocated
mem.page_mem                   116k # total size of memory pages allocated
mem.ptab_misses                  29 # total first level page table misses
mem.ptab_accesses           4313064 # total page table accesses
mem.ptab_miss_rate           0.0000 # first level page table miss rate

+--------------------------------------------------------------+effective code range:         [0, fffffff8]
| effective code range:         [0, fffffff8]                  |
| effective bpred count:        0                              |
| effective sim cycles:         0                              |
| effective bpred misses:       0                              |
| effective icache misses:      0                              |
+--------------------------------------------------------------+effective code range:         [0, fffffff8]

